<edges>
    <edge id="edge1" from="node1" to="node2" speed="13.9" numLanes="1"/>
</edges>